------------------------------------------------------------------------
--This is the 6th SPE comparison problem
-- SPE 18741
-- "Sixth SPE Comparative Solution Project : Dual-Porosity Simulators"
-- Abbas Firoozabadi, L. Kent Thomas
------------------------------------------------------------------------

RUNSPEC

FIELD

OIL
WATER
GAS

BLACKOIL

DIMENS
1  1  2 /

--200 points to be used on phase pressure vs depth curves

EQLDIMS
1 200 /

DUALPORO

GRAVDR

TABDIMS
2 1 40 40 /

FULLIMP

GRID

DZMATRIX
10.0 /

EQUALS
DX      10.0 /
DY      10.0 /
DZ      10.0 /
PERMX   1.00 /
PERMY   1.00 /
PERMZ   1.00 /
TOPS    0.00 /
PORO    0.29 4* 1 1 /
PORO    0.01 4* 2 2 /
/

MULTIPLY
DX 100000.0 4* 2 2 /
DY 100000.0 4* 2 2 /
/

SIGMA
0.120000 /

RPTGRID
TOPS DX DY DZ PORV PORO /

PROPS

SGFN
    .0000  .0000  .3930
    .1000  .0150  .4460
    .2000  .0500  .4980
    .3000  .1030  .6030
    .4000  .1900  .7600
    .5000  .3100 1.1800
    .5500  .4200 2.0240
    .8000  .4200 2.0240
/
    .0000  .0000  .0000
   1.0000 1.0000  .0000
/




SWFN
    .2000  .0000    1.0000
    .2500  .0050    0.5000
    .3000  .0100    0.3000
    .3500  .0200    0.1500
    .4000  .0300    0.0000
    .4500  .0450   -0.2000
    .5000  .0600   -1.2000
    .6000  .1100   -4.0000
    .7000  .1800  -10.0000
    .7500  .2300  -40.0000
   1.0000  .2300  -40.0000
/
    .0000  .0000    0.0000
   1.0000 1.0000    0.0000
/


SOF3
    .2500  .0000  .0000
    .3000  .0420  .0280
    .4000  .1540  .1100
    .5000  .3040  .2500
    .5500  .3920  1*
    .6000  .4920  .4500
    .6500  .6000  1*
    .7000  .7230  .7000
    .7500  .8600  1*
    .8000 1.0000 1.0000
/
    .0000  .0000  .0000
   1.0000 1.0000 1.0000
/

PVTW
  .0000000   1.07000   .3500E-05    .35000     .00E+00 /

PVDG
 1674.00 1.98000  .01620
 2031.00 1.62000  .01710
 2530.00 1.30000  .01840
 2991.00 1.11000  .01970
 3553.00  .95900  .02130
 4110.00  .85500  .02300
 4544.00  .79500  .02440
 4935.00  .75100  .02550
 5255.00  .72000  .02650
 5545.00  .69600  .02740
 7000.00  .60000  .03300
/

PVTO
   .36700 1674.00 1.30010  .52900 /
   .44700 2031.00 1.33590  .48700 /
   .56400 2530.00 1.38910  .43600 /
   .67900 2991.00 1.44250  .39700 /
   .83200 3553.00 1.51410  .35100 /
  1.00000 4110.00 1.59380  .31000 /
  1.14300 4544.00 1.66300  .27800 /
  1.28500 4935.00 1.73150  .24800 /
  1.41300 5255.00 1.79530  .22900 /
  1.53000 5545.00 1.85400  .21000
          5600.00 1.85330  .21090
          5700.00 1.85210  .21260
          5800.00 1.85090  .21430
          5900.00 1.84970  .21610
          6000.00 1.84850  .21780
          6100.00 1.84730  .21950
          6200.00 1.84610  .22120 /
  2.25900 7000.00 2.19780  .10900
          7100.00 2.19660  .11070
          7200.00 2.19540  .11240
          7300.00 2.19420  .11410 /
/

ROCK
 4500.00      .3500E-05 /

DENSITY
 51.1400  65.0000   .05800 /

REGIONS

SATNUM
1 2 /

SOLUTION

PRESSURE
2*4500.0 /

RS
0.447 0.447 /

SOIL
0.8 0.0  /

SWAT
0.2 0.0  /

RPTSOL
PRES SWAT SGAS SOIL /

SUMMARY

BSOIL
1 1 1 /
/
BSOIL
1 1 2 /
/
BSGAS
1 1 1 /
/
BSGAS
1 1 2 /
/
BPRES
1 1 2 /
/
BPRES
1 1 2 /
/

RUNSUM

SCHEDULE

RPTSCHED
PRES SWAT SGAS SOIL /

CVCRIT
1* 20 /

TSCRIT
0.00001 0.00001 /

TSTEP
20*91.3125 /

TSTEP
3650 /

END
